16
Lattice="5.752 0.0 0.0 0.0 5.752 0.0 0.0 0.0 5.752" Properties=species:S:1:pos:R:3 pbc="T T T"
Si       0.00000000       0.00000000       0.00000000 
Fe       1.43800000       1.43800000       1.43800000 
Fe       0.00000000       0.00000000       2.87600000 
Fe       1.43800000       1.43800000       4.31400000 
Fe       0.00000000       2.87600000       0.00000000 
Fe       1.43800000       4.31400000       1.43800000 
Si       0.00000000       2.87600000       2.87600000 
Fe       1.43800000       4.31400000       4.31400000 
Fe       2.87600000       0.00000000       0.00000000 
Fe       4.31400000       1.43800000       1.43800000 
Si       2.87600000       0.00000000       2.87600000 
Fe       4.31400000       1.43800000       4.31400000 
Si       2.87600000       2.87600000       0.00000000 
Fe       4.31400000       4.31400000       1.43800000 
Fe       2.87600000       2.87600000       2.87600000 
Fe       4.31400000       4.31400000       4.31400000 
