128
Lattice="11.504 0.0 0.0 0.0 11.504 0.0 0.0 0.0 11.504" Properties=species:S:1:pos:R:3:tags:I:1 pbc="T T T"
Fe       0.00000000       0.00000000       0.00000000        0 
Fe       0.00000000       0.00000000       2.87600000        0 
Fe       0.00000000       0.00000000       5.75200000        0 
Fe       0.00000000       0.00000000       8.62800000        0 
Fe       0.00000000       2.87600000       0.00000000        0 
Fe       0.00000000       2.87600000       2.87600000        0 
Fe       0.00000000       2.87600000       5.75200000        0 
Fe       0.00000000       2.87600000       8.62800000        0 
Fe       0.00000000       5.75200000       0.00000000        0 
Fe       0.00000000       5.75200000       2.87600000        0 
Fe       0.00000000       5.75200000       5.75200000        0 
Fe       0.00000000       5.75200000       8.62800000        0 
Fe       0.00000000       8.62800000       0.00000000        0 
Fe       0.00000000       8.62800000       2.87600000        0 
Fe       0.00000000       8.62800000       5.75200000        0 
Fe       0.00000000       8.62800000       8.62800000        0 
Fe       1.43800000       1.43800000       1.43800000        1 
Si       1.43800000       1.43800000       4.31400000        1 
Fe       1.43800000       1.43800000       7.19000000        1 
Si       1.43800000       1.43800000      10.06600000        1 
Si       1.43800000       4.31400000       1.43800000        1 
Fe       1.43800000       4.31400000       4.31400000        1 
Si       1.43800000       4.31400000       7.19000000        1 
Fe       1.43800000       4.31400000      10.06600000        1 
Fe       1.43800000       7.19000000       1.43800000        1 
Si       1.43800000       7.19000000       4.31400000        1 
Fe       1.43800000       7.19000000       7.19000000        1 
Si       1.43800000       7.19000000      10.06600000        1 
Si       1.43800000      10.06600000       1.43800000        1 
Fe       1.43800000      10.06600000       4.31400000        1 
Si       1.43800000      10.06600000       7.19000000        1 
Fe       1.43800000      10.06600000      10.06600000        1 
Fe       2.87600000       0.00000000       0.00000000        0 
Fe       2.87600000       0.00000000       2.87600000        0 
Fe       2.87600000       0.00000000       5.75200000        0 
Fe       2.87600000       0.00000000       8.62800000        0 
Fe       2.87600000       2.87600000       0.00000000        0 
Fe       2.87600000       2.87600000       2.87600000        0 
Fe       2.87600000       2.87600000       5.75200000        0 
Fe       2.87600000       2.87600000       8.62800000        0 
Fe       2.87600000       5.75200000       0.00000000        0 
Fe       2.87600000       5.75200000       2.87600000        0 
Fe       2.87600000       5.75200000       5.75200000        0 
Fe       2.87600000       5.75200000       8.62800000        0 
Fe       2.87600000       8.62800000       0.00000000        0 
Fe       2.87600000       8.62800000       2.87600000        0 
Fe       2.87600000       8.62800000       5.75200000        0 
Fe       2.87600000       8.62800000       8.62800000        0 
Si       4.31400000       1.43800000       1.43800000        1 
Fe       4.31400000       1.43800000       4.31400000        1 
Si       4.31400000       1.43800000       7.19000000        1 
Fe       4.31400000       1.43800000      10.06600000        1 
Fe       4.31400000       4.31400000       1.43800000        1 
Si       4.31400000       4.31400000       4.31400000        1 
Fe       4.31400000       4.31400000       7.19000000        1 
Si       4.31400000       4.31400000      10.06600000        1 
Si       4.31400000       7.19000000       1.43800000        1 
Fe       4.31400000       7.19000000       4.31400000        1 
Si       4.31400000       7.19000000       7.19000000        1 
Fe       4.31400000       7.19000000      10.06600000        1 
Fe       4.31400000      10.06600000       1.43800000        1 
Si       4.31400000      10.06600000       4.31400000        1 
Fe       4.31400000      10.06600000       7.19000000        1 
Si       4.31400000      10.06600000      10.06600000        1 
Fe       5.75200000       0.00000000       0.00000000        0 
Fe       5.75200000       0.00000000       2.87600000        0 
Fe       5.75200000       0.00000000       5.75200000        0 
Fe       5.75200000       0.00000000       8.62800000        0 
Fe       5.75200000       2.87600000       0.00000000        0 
Fe       5.75200000       2.87600000       2.87600000        0 
Fe       5.75200000       2.87600000       5.75200000        0 
Fe       5.75200000       2.87600000       8.62800000        0 
Fe       5.75200000       5.75200000       0.00000000        0 
Fe       5.75200000       5.75200000       2.87600000        0 
Fe       5.75200000       5.75200000       5.75200000        0 
Fe       5.75200000       5.75200000       8.62800000        0 
Fe       5.75200000       8.62800000       0.00000000        0 
Fe       5.75200000       8.62800000       2.87600000        0 
Fe       5.75200000       8.62800000       5.75200000        0 
Fe       5.75200000       8.62800000       8.62800000        0 
Fe       7.19000000       1.43800000       1.43800000        1 
Si       7.19000000       1.43800000       4.31400000        1 
Fe       7.19000000       1.43800000       7.19000000        1 
Si       7.19000000       1.43800000      10.06600000        1 
Si       7.19000000       4.31400000       1.43800000        1 
Fe       7.19000000       4.31400000       4.31400000        1 
Si       7.19000000       4.31400000       7.19000000        1 
Fe       7.19000000       4.31400000      10.06600000        1 
Fe       7.19000000       7.19000000       1.43800000        1 
Si       7.19000000       7.19000000       4.31400000        1 
Fe       7.19000000       7.19000000       7.19000000        1 
Si       7.19000000       7.19000000      10.06600000        1 
Si       7.19000000      10.06600000       1.43800000        1 
Fe       7.19000000      10.06600000       4.31400000        1 
Si       7.19000000      10.06600000       7.19000000        1 
Fe       7.19000000      10.06600000      10.06600000        1 
Fe       8.62800000       0.00000000       0.00000000        0 
Fe       8.62800000       0.00000000       2.87600000        0 
Fe       8.62800000       0.00000000       5.75200000        0 
Fe       8.62800000       0.00000000       8.62800000        0 
Fe       8.62800000       2.87600000       0.00000000        0 
Fe       8.62800000       2.87600000       2.87600000        0 
Fe       8.62800000       2.87600000       5.75200000        0 
Fe       8.62800000       2.87600000       8.62800000        0 
Fe       8.62800000       5.75200000       0.00000000        0 
Fe       8.62800000       5.75200000       2.87600000        0 
Fe       8.62800000       5.75200000       5.75200000        0 
Fe       8.62800000       5.75200000       8.62800000        0 
Fe       8.62800000       8.62800000       0.00000000        0 
Fe       8.62800000       8.62800000       2.87600000        0 
Fe       8.62800000       8.62800000       5.75200000        0 
Fe       8.62800000       8.62800000       8.62800000        0 
Si      10.06600000       1.43800000       1.43800000        1 
Fe      10.06600000       1.43800000       4.31400000        1 
Si      10.06600000       1.43800000       7.19000000        1 
Fe      10.06600000       1.43800000      10.06600000        1 
Fe      10.06600000       4.31400000       1.43800000        1 
Si      10.06600000       4.31400000       4.31400000        1 
Fe      10.06600000       4.31400000       7.19000000        1 
Si      10.06600000       4.31400000      10.06600000        1 
Si      10.06600000       7.19000000       1.43800000        1 
Fe      10.06600000       7.19000000       4.31400000        1 
Si      10.06600000       7.19000000       7.19000000        1 
Fe      10.06600000       7.19000000      10.06600000        1 
Fe      10.06600000      10.06600000       1.43800000        1 
Si      10.06600000      10.06600000       4.31400000        1 
Fe      10.06600000      10.06600000       7.19000000        1 
Si      10.06600000      10.06600000      10.06600000        1 
